46     

 C    -5.19404629     0.05715330    -5.31080223
 C    -5.19956512     0.06883897    -7.80403841
 C    -5.19541935     0.03359944   -10.29689601
 C    -2.99144340    -0.00056253    -6.53663694
 C    -2.99184925    -0.01086446    -9.06867795
 C    -0.72015776     0.00337949    -5.32212869
 C    -0.74047375     0.01052057    -7.80214094
 C    -0.72047065    -0.00146963   -10.28191120
 C     1.47849866    -0.01487770    -6.54004124
 C     1.47863739    -0.00927543    -9.06438235
 C     3.74531654    -0.02752818    -5.31616941
 C     3.72523731     0.00139826    -7.80296926
 C     3.74635277    -0.00395759   -10.28902895
 C     5.91724650    -0.10858785    -6.53172231
 C     5.91795703    -0.09814651    -9.07729814
 C    -5.91724650     0.10858785    -6.53172231
 C    -5.91795703     0.09814651    -9.07729814
 C    -3.74531654     0.02752818    -5.31616941
 C    -3.72523731    -0.00139826    -7.80296926
 C    -3.74635277     0.00395759   -10.28902895
 C    -1.47849866     0.01487770    -6.54004124
 C    -1.47863739     0.00927543    -9.06438235
 C     0.72015776    -0.00337949    -5.32212869
 C     0.74047375    -0.01052057    -7.80214094
 C     0.72047065     0.00146963   -10.28191120
 C     2.99144340     0.00056253    -6.53663694
 C     2.99184925     0.01086446    -9.06867795
 C     5.19404629    -0.05715330    -5.31080223
 C     5.19956512    -0.06883897    -7.80403841
 C     5.19541935    -0.03359944   -10.29689601
 H    -5.73373261     0.04093032    -4.39862647
 H    -5.73517385     0.00766757   -11.20880705
 H    -1.23803923    -0.00021941    -4.39726386
 H    -1.23891674    -0.01186044   -11.20640826
 H     3.21911898    -0.02636621    -4.39600426
 H     3.21949718     0.00728386   -11.20874953
 H     6.97445555    -0.17549130    -6.49401183
 H     6.97498085    -0.16699551    -9.11666291
 H    -6.97445555     0.17549130    -6.49401183
 H    -6.97498085     0.16699551    -9.11666291
 H    -3.21911898     0.02636621    -4.39600426
 H    -3.21949718    -0.00728386   -11.20874953
 H     1.23803923     0.00021941    -4.39726386
 H     1.23891674     0.01186044   -11.20640826
 H     5.73373261    -0.04093032    -4.39862647
 H     5.73517385    -0.00766757   -11.20880705
