126    

 C    -0.89478435    -7.01863473    -8.87266370
 C    -1.04754815    -9.22287017    -7.49567166
 C    -1.20032758   -11.42704366    -6.11858221
 C    -0.65473961    -4.73333332    -7.64866117
 C    -0.86563454    -6.93545592    -6.27315577
 C    -1.01828070    -9.13785027    -4.89724586
 C    -1.11302712   -11.34555218    -3.51778542
 C    -0.41467738    -2.44795570    -6.42496199
 C    -0.58630499    -4.65036690    -5.04755488
 C    -0.75865219    -6.85399748    -3.67180889
 C    -0.89184564    -9.05873858    -2.29349666
 C    -1.02573568   -11.26436716    -0.91705289
 C    -0.17458401    -0.16237235    -5.20149535
 C    -0.38472422    -2.35721949    -3.82175120
 C    -0.51823638    -4.56525394    -2.44630706
 C    -0.67123215    -6.77269256    -1.06724582
 C    -0.84341205    -8.97521411     0.31273287
 C    -0.93844820   -11.18348272     1.68376338
 C    -0.08727511    -0.08113079    -2.60074979
 C    -0.29750396    -2.27610080    -1.22313870
 C    -0.41172252    -4.48799639     0.15389576
 C    -0.60354550    -6.69169938     1.53543440
 C    -0.69837344    -8.89811966     2.90752003
 C     0.00000000     0.00000000     0.00000000
 C    -0.15281699    -2.20441167     1.37681559
 C    -0.30558779    -4.40860428     2.75384893
 C    -0.45832096    -6.61270144     4.13117724
 C    -1.29297959    -5.47518719    -8.90747980
 C    -1.44571276    -7.67928435    -7.53015148
 C    -1.59848356    -9.88347696    -6.15311814
 C    -1.75130055   -12.08788863    -4.77630256
 C    -1.05292711    -3.18976896    -7.68382259
 C    -1.14775504    -5.39618925    -6.31173696
 C    -1.33957802    -7.59989223    -4.93019831
 C    -1.45379659    -9.81178783    -3.55316385
 C    -1.66402544   -12.00675784    -2.17555277
 C    -0.81285235    -0.90440591    -6.46006594
 C    -0.90788850    -3.11267452    -5.08903543
 C    -1.08006839    -5.31519606    -3.70905673
 C    -1.23306417    -7.52263469    -2.32999550
 C    -1.36657632    -9.73066914    -0.95455135
 C    -1.57671654   -11.92551628     0.42519279
 C    -0.72556486    -0.82352146    -3.85924967
 C    -0.85945490    -3.02915005    -2.48280589
 C    -0.99264836    -5.23389114    -1.10449367
 C    -1.16499556    -7.43752173     0.27125232
 C    -1.33662317    -9.63993293     1.64865943
 C    -0.63827343    -0.74233645    -1.25851714
 C    -0.73301985    -2.95003836     0.12094330
 C    -0.88566601    -5.15243271     1.49685321
 C    -1.09656094    -7.35455530     2.87235861
 C    -0.55097297    -0.66084497     1.34227965
 C    -0.70375239    -2.86501846     2.71936911
 C    -0.85651620    -5.06925389     4.09636114
 F     0.49699656    -7.16686385    -9.04492113
 F     0.33990688    -9.41993466    -7.65718226
 F     0.18590409   -11.65533767    -6.24082040
 F     0.76612586    -4.81766845    -7.79912191
 F     0.57590066    -7.09178463    -6.37017710
 F     0.42283764    -9.30019350    -4.99050972
 F     0.29709326   -11.58491865    -3.57139286
 F     1.00872116    -2.50817638    -6.56250998
 F     0.85703216    -4.76701930    -5.11284530
 F     0.68227810    -6.99277537    -3.73408850
 F     0.54908962    -9.21004558    -2.33713718
 F     0.38530583   -11.50287635    -0.94321806
 F     1.23245752    -0.16532149    -5.29596254
 F     1.06601508    -2.42592571    -3.87185526
 F     0.92605556    -4.67202932    -2.49145035
 F     0.77092055    -6.91033300    -1.09310668
 F     0.60105309    -9.13444461     0.31918238
 F     0.45333258   -11.40661542     1.72685227
 F     1.32248830    -0.06582080    -2.64854556
 F     1.15347359    -2.34458510    -1.26614557
 F     1.03298702    -4.60337246     0.12949428
 F     0.84157474    -6.84469343     1.54522363
 F     0.69719333    -9.08764029     2.98768884
 F     1.41021226    -0.00000000    -0.00000000
 F     1.27672115    -2.25892238     1.42218921
 F     1.12233842    -4.48637215     2.81375208
 F     0.94217967    -6.75282179     4.21871514
 F    -2.69348022    -5.33506684    -8.99501770
 F    -2.87363897    -7.60151648    -7.59005464
 F    -3.02802170    -9.82896625    -6.19849177
 F    -3.16151280   -12.08788863    -4.77630256
 F    -2.44849388    -3.00024834    -7.76399140
 F    -2.59287529    -5.24319520    -6.32152619
 F    -2.78428757    -7.48451617    -4.90579684
 F    -2.90477414    -9.74330353    -3.51015699
 F    -3.07378885   -12.02206783    -2.12775699
 F    -2.20463313    -0.68127321    -6.50315483
 F    -2.35235364    -2.95344402    -5.09548493
 F    -2.52222110    -5.17755563    -3.68319588
 F    -2.67735610    -7.41585930    -2.28485221
 F    -2.81731563    -9.66196291    -0.90444730
 F    -2.98375806   -11.92256713     0.51965998
 F    -2.13660637    -0.58501228    -3.83308450
 F    -2.30039017    -2.87784305    -2.43916537
 F    -2.43357865    -5.09511326    -1.04221405
 F    -2.60833270    -7.32086933     0.33654274
 F    -2.76002171    -9.57971225     1.78620743
 F    -2.04839381    -0.50296998    -1.20490970
 F    -2.17413818    -2.78769513     0.21420717
 F    -2.32720121    -4.99610400     1.59387454
 F    -2.51742641    -7.27022018     3.02281936
 F    -1.93720464    -0.43255095     1.46451785
 F    -2.09120743    -2.66795397     2.88087970
 F    -2.24829711    -4.92102478     4.26861858
 F     0.07831114     0.00576365     2.42556431
 F    -0.06394784    -2.22635632     3.81264533
 F    -0.23055666    -4.45061242     5.20961249
 F    -1.52074388    -7.63727621    -9.98591505
 F    -1.68735270    -9.86153231    -8.58894789
 F    -1.82961168   -12.09365228    -7.20186687
 F    -0.74429516    -4.92841535   -10.09653690
 F    -1.33453245   -13.44441919    -4.77630256
 F    -0.48913261    -2.62180030    -8.85516313
 F    -1.23325774   -13.35811336    -2.14782686
 F    -0.25894377    -0.30790047    -7.62249360
 F    -1.15804887   -13.28028039     0.48178892
 F    -0.59325168     1.19239176    -5.25809147
 F    -1.49235678   -11.77998816     2.84619105
 F    -0.51804281     1.27022474    -2.62847570
 F    -1.26216794    -9.46608832     4.07886057
 F    -0.41676809     1.35136856    -0.11822943
 F    -1.00700539    -7.15947327     5.32023434
