330    

 C   -10.52187903    -5.20696592     0.26572483
 C    -9.77015661    -3.90522845    -0.26573166
 C   -10.52193026    -2.60348319     0.26573489
 C    -9.77011433    -1.30174989    -0.26571111
 C   -10.52194164     0.00000008     0.26572492
 C    -9.77011433     1.30174990    -0.26571113
 C   -10.52193026     2.60348265     0.26573490
 C    -9.77015645     3.90522846    -0.26573169
 C   -10.52187903     5.20696616     0.26572484
 C    -9.77030267     6.50873041    -0.26572530
 C    -8.26710696     6.50859198     0.26573417
 C    -7.51660805     5.21265009    -0.20459333
 C    -8.27272412     3.90344490     0.20444505
 C    -7.51626001     2.60737240    -0.26360381
 C    -8.27054809     1.30124855     0.17992036
 C    -7.51623207     0.00013577    -0.27978658
 C    -8.27052550    -1.30125414     0.17976917
 C    -7.51626043    -2.60713333    -0.26398740
 C    -8.27268983    -3.90341346     0.20404795
 C    -7.51664228    -5.21247506    -0.20467666
 C    -8.26710696    -6.50859177     0.26573415
 C    -7.51564600    -7.81051471    -0.26573511
 C    -6.01240912    -7.81029595     0.26570936
 C    -5.26096815    -9.11226604    -0.26572431
 C    -3.75771183    -9.11204479     0.26570968
 C    -3.00628065   -10.41399864    -0.26573458
 C    -1.50305274   -10.41381909     0.26573294
 C    -0.75157400   -11.71569568    -0.26572355
 C     0.75157405   -11.71569652     0.26572360
 C     1.50305272   -10.41381888    -0.26573295
 C     0.75580751    -9.11602193     0.20441146
 C    -0.75571461    -9.11601457    -0.20449020
 C    -1.50029301    -7.81303312     0.26353838
 C    -3.00818474    -7.81298618    -0.18016492
 C    -3.75822137    -6.50936648     0.27955442
 C    -5.26200513    -6.51169412    -0.18023327
 C    -6.01616713    -5.20572883     0.26349345
 C    -5.26296274    -3.91021841    -0.21939955
 C    -6.01800740    -2.60278016     0.21907975
 C    -5.26181831    -1.30370280    -0.25127238
 C    -6.01770841     0.00002656     0.20273925
 C    -5.26179500     1.30405258    -0.25082945
 C    -6.01803290     2.60285315     0.21971683
 C    -5.26291208     3.91048682    -0.21856166
 C    -6.01619581     5.20583732     0.26408999
 C    -5.26199489     6.51187277    -0.17987985
 C    -6.01240918     7.81029637     0.26570921
 C    -7.51564606     7.81051434    -0.26573501
 F    -7.59341113     7.92656650    -1.66952570
 F    -8.17224559     8.94318974     0.28018651
 C    -5.26096814     9.11226572    -0.26572421
 C    -3.75771190     9.11204527     0.26570952
 C    -3.00821752     7.81310419    -0.17981843
 C    -3.75829289     6.50945231     0.28032081
 C    -3.00873134     5.21161975    -0.20163512
 C    -3.76020869     3.90514248     0.25235228
 C    -3.00783017     2.60673671    -0.22725271
 C    -3.76136684     1.30171712     0.22914009
 C    -3.00723069     0.00017121    -0.23797462
 C    -3.76137820    -1.30171506     0.22856382
 C    -3.00792087    -2.60644958    -0.22838714
 C    -3.76022080    -3.90509383     0.25119941
 C    -3.00878413    -5.21140609    -0.20284744
 C    -1.50186164    -5.20899920     0.25082009
 C    -0.75483086    -6.51314280    -0.21976659
 C     0.75483442    -6.51320482     0.21847517
 C     1.50039576    -7.81305624    -0.26420322
 C     3.00821752    -7.81310419     0.17981843
 C     3.75771190    -9.11204527    -0.26570952
 C     3.00628060   -10.41399848     0.26573447
 F     3.06935272   -10.53890457     1.66950564
 F     3.65827351   -11.54926558    -0.28040838
 C     5.26096814    -9.11226572     0.26572421
 C     6.01240918    -7.81029637    -0.26570921
 C     5.26199489    -6.51187277     0.17987985
 C     3.75829289    -6.50945231    -0.28032081
 C     3.00873134    -5.21161975     0.20163512
 C     1.50185664    -5.20898533    -0.25236531
 C     0.75328145    -3.90838008     0.22729326
 C    -0.75336769    -3.90822609    -0.22901624
 C    -1.50371796    -2.60450260     0.23819363
 C    -0.75218101    -1.30271290    -0.23374346
 C    -1.50438282    -0.00006771     0.23391582
 C    -0.75212571     1.30295599    -0.23295112
 C    -1.50366033     2.60440375     0.23954240
 C    -0.75328145     3.90838008    -0.22729326
 C    -1.50185664     5.20898533     0.25236531
 C    -0.75483442     6.51320482    -0.21847517
 C    -1.50039576     7.81305624     0.26420322
 C    -0.75580751     9.11602193    -0.20441146
 C    -1.50305272    10.41381888     0.26573295
 C    -3.00628060    10.41399848    -0.26573447
 F    -3.06935272    10.53890457    -1.66950564
 F    -3.65827351    11.54926558     0.28040838
 C    -0.75157405    11.71569652    -0.26572360
 C     0.75157400    11.71569568     0.26572355
 C     1.50305274    10.41381909    -0.26573294
 C     0.75571461     9.11601457     0.20449020
 C     1.50029301     7.81303312    -0.26353838
 C     0.75483086     6.51314280     0.21976659
 C     1.50186164     5.20899920    -0.25082009
 C     0.75336769     3.90822609     0.22901624
 C     1.50371796     2.60450260    -0.23819363
 C     0.75218101     1.30271290     0.23374346
 C     1.50438282     0.00006771    -0.23391582
 C     0.75212571    -1.30295599     0.23295112
 C     1.50366033    -2.60440375    -0.23954240
 C     3.00783017    -2.60673671     0.22725271
 C     3.76020869    -3.90514248    -0.25235228
 C     5.26291208    -3.91048682     0.21856166
 C     6.01619581    -5.20583732    -0.26408999
 C     7.51660805    -5.21265009     0.20459333
 C     8.26710696    -6.50859198    -0.26573417
 C     7.51564606    -7.81051434     0.26573501
 F     7.59341113    -7.92656650     1.66952570
 F     8.17224559    -8.94318974    -0.28018651
 C     9.77030267    -6.50873041     0.26572530
 C    10.52187903    -5.20696616    -0.26572484
 C     9.77015645    -3.90522846     0.26573169
 C     8.27272412    -3.90344490    -0.20444505
 C     7.51626001    -2.60737240     0.26360381
 C     6.01803290    -2.60285315    -0.21971683
 C     5.26179500    -1.30405258     0.25082945
 C     3.76136684    -1.30171712    -0.22914009
 C     3.00723069    -0.00017121     0.23797462
 C     3.76137820     1.30171506    -0.22856382
 C     3.00792087     2.60644958     0.22838714
 C     3.76022080     3.90509383    -0.25119941
 C     3.00878413     5.21140609     0.20284744
 C     3.75822137     6.50936648    -0.27955442
 C     3.00818474     7.81298618     0.18016492
 C     3.75771183     9.11204479    -0.26570968
 C     3.00628065    10.41399864     0.26573458
 F     3.06963972    10.53954069     1.66959519
 F     3.65823836    11.54888140    -0.28125853
 C     5.26096815     9.11226604     0.26572431
 C     6.01240912     7.81029595    -0.26570936
 C     5.26200513     6.51169412     0.18023327
 C     6.01616713     5.20572883    -0.26349345
 C     5.26296274     3.91021841     0.21939955
 C     6.01800740     2.60278016    -0.21907975
 C     5.26181831     1.30370280     0.25127238
 C     6.01770841    -0.00002656    -0.20273925
 C     7.51623207    -0.00013577     0.27978658
 C     8.27054809    -1.30124855    -0.17992036
 C     9.77011433    -1.30174990     0.26571113
 C    10.52193026    -2.60348265    -0.26573490
 F    10.66305865    -2.61169001    -1.66948977
 F    11.83062090    -2.60618793     0.28165512
 C    10.52194164    -0.00000008    -0.26572492
 C     9.77011433     1.30174989     0.26571111
 C     8.27052550     1.30125414    -0.17976917
 C     7.51626043     2.60713333     0.26398740
 C     8.27268983     3.90341346    -0.20404795
 C     7.51664228     5.21247506     0.20467666
 C     8.26710696     6.50859177    -0.26573415
 C     7.51564600     7.81051471     0.26573511
 F     7.59429634     7.92718950     1.66963769
 F     8.17214341     8.94276936    -0.28119208
 C     9.77030272     6.50873062     0.26572532
 C    10.52187903     5.20696592    -0.26572483
 C     9.77015661     3.90522845     0.26573166
 C    10.52193026     2.60348319    -0.26573489
 F    10.66309167     2.61256131    -1.66949960
 F    11.83061037     2.60608987     0.28165843
 F     9.88654591     3.92410234     1.69238874
 F    10.64671607     5.25583358    -1.66953264
 F    11.83609963     5.23594665     0.26970254
 F     9.87512759     6.59117230     1.66972874
 F    10.45255248     7.63261052    -0.26897989
 F     8.34201533     6.59859957    -1.69239141
 F     7.54412314     5.26643054     1.65628776
 F     8.33351912     3.89996621    -1.65566450
 F     7.53678547     2.62622972     1.71209014
 F     8.31757676     1.29687507    -1.63124962
 F     9.89499894     1.30589325     1.69359085
 F    10.66146111     0.00044257    -1.66992207
 F    11.83094846    -0.00004605     0.27990108
 F     9.89496750    -1.30585948     1.69358592
 F     8.31775636    -1.29739819    -1.63136024
 F     7.53678118    -0.00058957     1.72735711
 F     6.04575221     0.00000315    -1.64962232
 F     5.26326284     1.31319169     1.69778326
 F     6.04782680     2.59641452    -1.66621423
 F     5.27247813     3.93926906     1.66653671
 F     6.04330402     5.21399259    -1.71153974
 F     5.28171509     6.55440221     1.63165887
 F     6.07882134     7.91521194    -1.69361700
 F     5.33124354     9.23206023     1.67003172
 F     5.91531955    10.24610389    -0.27955991
 F     3.81690367     9.22118579    -1.69362727
 F     3.03510154     7.85167221     1.63154498
 F     3.76846088     6.52746757    -1.72708391
 F     3.02315222     5.23568443     1.64973210
 F     3.76943737     3.90177789    -1.69769638
 F     3.01309471     2.61989365     1.67449528
 F     3.77563585     1.29930808    -1.67467049
 F     3.00796087    -0.00048422     1.68396730
 F     3.77567186    -1.29903216    -1.67521887
 F     5.26310542    -1.31408119     1.69729271
 F     6.04802021    -2.59654150    -1.66676845
 F     7.53668260    -2.62726420     1.71161819
 F     8.33381271    -3.90048280    -1.65595035
 F     9.88633075    -3.92403844     1.69235505
 F    10.64599914    -5.25497358    -1.66974967
 F    11.83619346    -5.23604433     0.26922364
 F     9.87377755    -6.59035705     1.66975112
 F    10.45242177    -7.63314647    -0.26776014
 F     8.34114779    -6.59805753    -1.69288237
 F     7.54374478    -5.26655088     1.65591641
 F     6.04372324    -5.21417035    -1.71207462
 F     5.27211535    -3.93970748     1.66556930
 F     3.76958211    -3.90183843    -1.69878689
 F     3.01264615    -2.62056142     1.67330700
 F     1.50370404    -2.60483671    -1.68551644
 F     0.75444871    -1.30676577     1.67880533
 F     1.50812537     0.00036174    -1.67977882
 F     0.75463702     1.30589340     1.67960668
 F     1.50379211     2.60529046    -1.68418700
 F     0.76322204     3.91920573     1.67509689
 F     1.49396614     5.21542624    -1.69728545
 F     0.77550879     6.53595705     1.66682532
 F     1.49339385     7.84076893    -1.71153149
 F     0.78871652     9.16714331     1.65595060
 F     1.54497751    10.52300057    -1.69242044
 F     0.77160284    11.84620200     1.66990276
 F     1.38358466    12.86855326    -0.26858676
 F    -0.77147663    11.84543204    -1.66977482
 F    -1.38382546    12.86881023     0.26771499
 F    -1.54460397    10.52246124     1.69290011
 F    -0.78967969     9.16663048    -1.65574761
 F    -1.49424444     7.84092954     1.71218115
 F    -0.77558729     6.53593287    -1.66549456
 F    -1.49412396     5.21547710     1.69880023
 F    -0.76287089     3.91957137    -1.67335111
 F    -1.50370404     2.60483671     1.68551644
 F    -0.75444871     1.30676577    -1.67880533
 F    -1.50812537    -0.00036174     1.67977882
 F    -0.75463702    -1.30589340    -1.67960668
 F    -1.50379211    -2.60529046     1.68418700
 F    -0.76322204    -3.91920573    -1.67509689
 F     0.76287089    -3.91957137     1.67335111
 F     1.49412396    -5.21547710    -1.69880023
 F     3.02285485    -5.23603180     1.64843469
 F     3.76903787    -6.52754044    -1.72781639
 F     5.28183404    -6.55436057     1.63111528
 F     6.07811928    -7.91486465    -1.69415605
 F     5.33063784    -9.23145389     1.66993063
 F     5.91538967   -10.24650273    -0.27863192
 F     3.81630071    -9.22083892    -1.69415681
 F     3.03562010    -7.85145424     1.63105210
 F     1.49424444    -7.84092954    -1.71218115
 F     0.77558729    -6.53593287     1.66549456
 F    -0.77550879    -6.53595705    -1.66682532
 F    -1.49396614    -5.21542624     1.69728545
 F    -3.02315222    -5.23568443    -1.64973210
 F    -3.76943737    -3.90177789     1.69769638
 F    -3.01309471    -2.61989365    -1.67449528
 F    -3.77563585    -1.29930808     1.67467049
 F    -3.00796087     0.00048422    -1.68396730
 F    -3.77567186     1.29903216     1.67521887
 F    -3.01264615     2.62056142    -1.67330700
 F    -3.76958211     3.90183843     1.69878689
 F    -3.02285485     5.23603180    -1.64843469
 F    -3.76903787     6.52754044     1.72781639
 F    -3.03562010     7.85145424    -1.63105210
 F    -3.81630071     9.22083892     1.69415681
 F    -5.33063784     9.23145389    -1.66993063
 F    -5.91538967    10.24650273     0.27863192
 F    -6.07811928     7.91486465     1.69415605
 F    -5.28183404     6.55436057    -1.63111528
 F    -6.04372324     5.21417035     1.71207462
 F    -5.27211535     3.93970748    -1.66556930
 F    -6.04802021     2.59654150     1.66676845
 F    -5.26310542     1.31408119    -1.69729271
 F    -6.04575221    -0.00000315     1.64962232
 F    -5.26326284    -1.31319169    -1.69778326
 F    -6.04782680    -2.59641452     1.66621423
 F    -5.27247813    -3.93926906    -1.66653671
 F    -6.04330402    -5.21399259     1.71153974
 F    -5.28171509    -6.55440221    -1.63165887
 F    -3.76846088    -6.52746757     1.72708391
 F    -3.03510154    -7.85167221    -1.63154498
 F    -1.49339385    -7.84076893     1.71153149
 F    -0.78871652    -9.16714331    -1.65595060
 F     0.78967969    -9.16663048     1.65574761
 F     1.54460397   -10.52246124    -1.69290011
 F     0.77147663   -11.84543204     1.66977482
 F     1.38382546   -12.86881023    -0.26771499
 F    -0.77160284   -11.84620200    -1.66990276
 F    -1.38358466   -12.86855326     0.26858676
 F    -1.54497751   -10.52300057     1.69242044
 F    -3.06963972   -10.53954069    -1.66959519
 F    -3.65823836   -11.54888140     0.28125853
 F    -3.81690367    -9.22118579     1.69362727
 F    -5.33124354    -9.23206023    -1.67003172
 F    -5.91531955   -10.24610389     0.27955991
 F    -6.07882134    -7.91521194     1.69361700
 F    -7.59429634    -7.92718950    -1.66963769
 F    -8.17214341    -8.94276936     0.28119208
 F    -8.34201533    -6.59859957     1.69239141
 F    -7.54412314    -5.26643054    -1.65628776
 F    -8.33351912    -3.89996621     1.65566450
 F    -7.53678547    -2.62622972    -1.71209014
 F    -8.31757676    -1.29687507     1.63124962
 F    -7.53678118     0.00058957    -1.72735711
 F    -8.31775636     1.29739819     1.63136024
 F    -7.53668260     2.62726420    -1.71161819
 F    -8.33381271     3.90048280     1.65595035
 F    -7.54374478     5.26655088    -1.65591641
 F    -8.34114779     6.59805753     1.69288237
 F    -9.87377755     6.59035705    -1.66975112
 F   -10.45242177     7.63314647     0.26776014
 F   -10.64599914     5.25497358     1.66974967
 F   -11.83619346     5.23604433    -0.26922364
 F    -9.88633075     3.92403844    -1.69235505
 F   -10.66305865     2.61169001     1.66948977
 F   -11.83062090     2.60618793    -0.28165512
 F    -9.89496750     1.30585948    -1.69358592
 F   -10.66146111    -0.00044257     1.66992207
 F   -11.83094846     0.00004605    -0.27990108
 F    -9.89499894    -1.30589325    -1.69359085
 F   -10.66309167    -2.61256131     1.66949960
 F   -11.83061037    -2.60608987    -0.28165843
 F    -9.88654591    -3.92410234    -1.69238874
 F   -10.64671607    -5.25583358     1.66953264
 F   -11.83609963    -5.23594665    -0.26970254
 C    -9.77030272    -6.50873062    -0.26572532
 F   -10.45255248    -7.63261052     0.26897989
 F    -9.87512759    -6.59117230    -1.66972874
