126    

 C    -0.66978684    -6.73093864    -6.50874694
 C    -0.89303187    -8.97456588    -5.20705720
 C    -1.11629515   -11.21813402    -3.90526873
 C    -0.44656304    -4.48743864    -5.20671582
 C    -0.72782910    -6.72821674    -3.90839435
 C    -0.95089992    -8.96997196    -2.60772425
 C    -1.11628555   -11.21783011    -1.30173151
 C    -0.22331066    -2.24385332    -3.90498476
 C    -0.46540182    -4.48544565    -2.60345598
 C    -0.70816907    -6.72819698    -1.30364873
 C    -0.91190637    -8.97260311     0.00000023
 C    -1.11628613   -11.21783042     1.30173166
 C    -0.00001705    -0.00005560    -2.60347854
 C    -0.28059352    -2.23370174    -1.30067060
 C    -0.48458788    -4.48130731    -0.00000009
 C    -0.70816961    -6.72819696     1.30364901
 C    -0.95090104    -8.96997221     2.60772472
 C    -1.11629675   -11.21813366     3.90526898
 C     0.00000000     0.00000000     0.00000000
 C    -0.28059411    -2.23370219     1.30067032
 C    -0.46540288    -4.48544534     2.60345596
 C    -0.72783063    -6.72821571     3.90839453
 C    -0.89303395    -8.97456482     5.20705742
 C    -0.00001806    -0.00005484     2.60347818
 C    -0.22331218    -2.24385214     3.90498438
 C    -0.44656514    -4.48743777     5.20671648
 C    -0.66978945    -6.73093752     6.50874749
 C    -1.04979916    -5.18252249    -6.50874746
 C    -1.27302348    -7.42602225    -5.20671645
 C    -1.49627643    -9.66960787    -3.90498434
 C    -1.71957055   -11.91340518    -2.60347814
 C    -0.82655466    -2.93889519    -5.20705739
 C    -0.99175798    -5.18524431    -3.90839449
 C    -1.25418573    -7.42801468    -2.60345593
 C    -1.43899450    -9.67975783    -1.30067028
 C    -1.71958861   -11.91346002     0.00000003
 C    -0.60329186    -0.69532636    -3.90526895
 C    -0.76868758    -2.94348781    -2.60772468
 C    -1.01141900    -5.18526306    -1.30364898
 C    -1.23500073    -7.43215271     0.00000013
 C    -1.43899509    -9.67975828     1.30067063
 C    -1.71957157   -11.91340442     2.60347857
 C    -0.60330248    -0.69562960    -1.30173163
 C    -0.80768225    -2.94085691    -0.00000019
 C    -1.01141954    -5.18526304     1.30364876
 C    -1.25418679    -7.42801436     2.60345602
 C    -1.49627795    -9.66960670     3.90498479
 C    -0.60330306    -0.69562990     1.30173154
 C    -0.76868869    -2.94348806     2.60772428
 C    -0.99175951    -5.18524328     3.90839439
 C    -1.27302557    -7.42602138     5.20671585
 C    -0.60329346    -0.69532600     3.90526877
 C    -0.82655674    -2.93889414     5.20705724
 C    -1.04980178    -5.18252137     6.50874698
 F     0.72534062    -6.89034121    -6.63878074
 F     0.49687831    -9.18305672    -5.32802333
 F     0.27072289   -11.45903239    -3.98801852
 F     0.97758550    -4.58399944    -5.31200816
 F     0.71438410    -6.89862374    -3.96185531
 F     0.49070410    -9.14650097    -2.65763321
 F     0.29216055   -11.47219296    -1.31546683
 F     1.20319355    -2.31674068    -3.99654099
 F     0.97796769    -4.61719673    -2.62392164
 F     0.73245296    -6.88212557    -1.32187739
 F     0.52795313    -9.13962813     0.00000057
 F     0.29216003   -11.47219263     1.31546744
 F     1.40930242    -0.01683492    -2.65076165
 F     1.17017928    -2.31808860    -1.30422249
 F     0.95916039    -4.60381864     0.00000026
 F     0.73245247    -6.88212496     1.32187737
 F     0.49070296    -9.14650117     2.65763383
 F     0.27072129   -11.45903162     3.98801988
 F     1.41065648     0.00000000     0.00000000
 F     1.17017873    -2.31808867     1.30422307
 F     0.97796661    -4.61719649     2.62392217
 F     0.71438258    -6.89862229     3.96185629
 F     0.49687614    -9.18305614     5.32802443
 F     1.40930141    -0.01683393     2.65076145
 F     1.20319198    -2.31673968     3.99654182
 F     0.97758341    -4.58399811     5.31200893
 F     0.72533785    -6.89034118     6.63878177
 F    -2.44492646    -5.02311884    -6.63878174
 F    -2.69717202    -7.32946191    -5.31200889
 F    -2.92278059    -9.59672034    -3.99654179
 F    -3.12889002   -11.89662608    -2.65076141
 F    -2.21646476    -2.73040387    -5.32802440
 F    -2.43397120    -5.01483773    -3.96185625
 F    -2.69755523    -7.29626353    -2.62392214
 F    -2.88976734    -9.59537134    -1.30422304
 F    -3.13024509   -11.91346002     0.00000003
 F    -1.99030991    -0.45442839    -3.98801985
 F    -2.21029158    -2.76695884    -2.65763379
 F    -2.45204108    -5.03133506    -1.32187733
 F    -2.67874900    -7.30964137    -0.00000022
 F    -2.88976789    -9.59537142     1.30422253
 F    -3.12889103   -11.89662510     2.65076169
 F    -2.01174864    -0.44126739    -1.31546741
 F    -2.24754175    -2.77383189    -0.00000054
 F    -2.45204158    -5.03133445     1.32187743
 F    -2.69755630    -7.29626329     2.62392167
 F    -2.92278217    -9.59671934     3.99654102
 F    -2.01174916    -0.44126706     1.31546687
 F    -2.21029271    -2.76695904     2.65763324
 F    -2.43397271    -5.01483628     3.96185535
 F    -2.69717411    -7.32946058     5.31200819
 F    -1.99031150    -0.45442763     3.98801856
 F    -2.21646693    -2.73040330     5.32802337
 F    -2.44492923    -5.02311881     6.63878077
 F    -0.00387677    -0.06993336     5.02930385
 F    -0.21726809    -2.34186566     6.34055467
 F    -0.45524346    -4.60595314     7.66111006
 F    -1.26434515    -7.30750688    -7.66111003
 F    -1.50232052    -9.57159436    -6.34055464
 F    -1.71571185   -11.84352666    -5.02930381
 F    -0.45524037    -4.60595429    -7.66111014
 F    -1.31778887   -13.27415492    -2.63180574
 F    -0.21726559    -2.34186717    -6.34055448
 F    -1.30469943   -13.27005806     0.00000003
 F    -0.00387473    -0.06993401    -5.02930410
 F    -1.31778992   -13.27415442     2.63180651
 F    -0.40179869     1.36069440    -2.63180648
 F    -1.71571389   -11.84352601     5.02930414
 F    -0.41488918     1.31037309    -0.35111341
 F    -1.50232302    -9.57159285     6.34055451
 F    -0.40179974     1.36069490     2.63180577
 F    -1.26434824    -7.30750573     7.66111018
