32     

 C     0.74557524     1.26626218     0.00000000
 C     1.45559957     0.00000000     0.00000000
 C     0.74557524    -1.26626218     0.00000000
 C     1.49814647    -2.46604157     0.00000000
 C     2.92379928    -2.46031403     0.00000000
 C     3.62572767    -1.24840683     0.00000000
 C     2.91321005     0.00000000     0.00000000
 C     3.62572767     1.24840683     0.00000000
 C     2.92379928     2.46031403     0.00000000
 C     1.49814647     2.46604157     0.00000000
 C    -0.74557524    -1.26626218    -0.00000000
 C    -1.49814647    -2.46604157    -0.00000000
 C    -2.92379928    -2.46031403    -0.00000000
 C    -3.62572767    -1.24840683    -0.00000000
 C    -2.91321005     0.00000000    -0.00000000
 C    -3.62572767     1.24840683    -0.00000000
 C    -2.92379928     2.46031403    -0.00000000
 C    -1.49814647     2.46604157    -0.00000000
 C    -0.74557524     1.26626218    -0.00000000
 C    -1.45559957     0.00000000    -0.00000000
 H     0.99096530    -3.43359990     0.00000000
 H     3.46535984    -3.41235336     0.00000000
 H     4.72148479    -1.23517782     0.00000000
 H     4.72148479     1.23517782     0.00000000
 H     3.46535984     3.41235336     0.00000000
 H     0.99096530     3.43359990    -0.00000000
 H    -0.99096530    -3.43359990    -0.00000000
 H    -3.46535984    -3.41235336    -0.00000000
 H    -4.72148479    -1.23517782    -0.00000000
 H    -4.72148479     1.23517782    -0.00000000
 H    -3.46535984     3.41235336    -0.00000000
 H    -0.99096530     3.43359990    -0.00000000
