20     

 C     1.23533000     3.61778000    -0.01587000
 C     2.48424000     2.90403000     0.05629000
 C     2.50394000     1.46369000     0.00136000
 C     2.48356000    -2.90302000    -0.05046000
 C     2.50363000    -1.46271000     0.00353000
 C     1.25355000    -0.72697000    -0.01198000
 C     1.25366000     0.72798000     0.01800000
 C    -0.00026000     1.43816000     0.03219000
 C    -0.00060000     2.87235000    -0.00527000
 C    -1.23640000     3.61709000    -0.04982000
 C    -2.48578000     2.90337000    -0.00001000
 C    -2.50410000     1.46214000    -0.02770000
 C    -1.25366000     0.72775000     0.01050000
 C    -1.25363000    -0.72728000    -0.00261000
 C    -0.00019000    -1.43744000    -0.02502000
 C    -0.00031000    -2.87166000     0.01279000
 C     1.23551000    -3.61713000     0.02301000
 C    -1.23576000    -3.61660000     0.05796000
 C    -2.48524000    -2.90323000     0.00805000
 C    -2.50388000    -1.46203000     0.03609000
