126    

 C     6.45264115     9.86211273     0.01395825
 C     5.14292062    10.48496769     0.01496923
 C     3.86492412     9.70480796     0.01398062
 C     3.87545081     8.15889607     0.01177971
 C     5.20310262     7.48957126     0.01070090
 C     5.18448429     5.97355456     0.00854530
 C     6.49114215     5.30866868     0.00747480
 C     7.85160369     6.12006398     0.00850001
 C     7.79592178     7.69166429     0.01074178
 C     6.47870064     3.78286950     0.00530469
 C     7.82555054     3.05151329     0.00413578
 C     7.84757403     1.51584880     0.00194836
 C     6.48346430     0.75028657     0.00098872
 C     5.19371220     1.49001622     0.00216411
 C     5.17290910     3.01964439     0.00434283
 C     3.81448967     3.68769412     0.00542275
 C     3.88073430     5.21619611     0.00759159
 C     2.54221461     5.95489967     0.00877016
 C     2.54782715     7.47756308     0.01093646
 C     1.26404580     8.22788151     0.01212635
 C     1.28564043     9.73514358     0.01426921
 C     2.56342243    10.54514099     0.01530030
 C    -0.04274441    10.54664415     0.01555041
 C    -1.30062328     9.72973992     0.01450760
 C    -1.31621412     8.22221074     0.01236379
 C    -0.00494578     7.50127729     0.01121310
 C    -0.01072981     5.98902621     0.00906164
 C     1.26256669     5.15871040     0.00775890
 C     1.23533204     3.61774949     0.00556863
 C     2.48423507     2.90410379     0.00443424
 C     2.50394010     1.46368854     0.00238258
 C     3.86083731     0.75048112     0.00123854
 C     3.86080248    -0.74985804    -0.00089652
 C     5.19213781    -1.49075637    -0.00207753
 C     6.48362603    -0.75256150    -0.00114993
 C     7.84489662    -1.52147857    -0.00237366
 C     7.82125991    -3.05674005    -0.00455617
 C     6.47195933    -3.78809907    -0.00546855
 C     5.17064072    -3.01987164    -0.00425150
 C     3.81217989    -3.68777746    -0.00507271
 C     2.48356444    -2.90308636    -0.00382963
 C     2.50362949    -1.46270244    -0.00178180
 C     1.25355108    -0.72698617    -0.00061589
 C     1.25365843     0.72800354     0.00145462
 C    -0.00026282     1.43820213     0.00258458
 C    -0.00059906     2.87233592     0.00462546
 C    -1.23639471     3.61701085     0.00580276
 C    -1.25851775     5.15578728     0.00799462
 C    -2.56178146     5.96525133     0.00927054
 C    -2.56904383     7.47487866     0.01141951
 C    -3.88419709     8.22794599     0.01261630
 C    -3.88300680     9.71632353     0.01473423
 C    -2.63200600    10.55133886     0.01580346
 C    -5.20645469    10.57258010     0.01607865
 C    -6.47385076     9.81601405     0.01512261
 C    -6.41988633     8.26226563     0.01290641
 C    -5.12520624     7.48155559     0.01167223
 C    -5.17940862     5.99078934     0.00955595
 C    -3.86776794     5.20123046     0.00830756
 C    -3.81887864     3.69129919     0.00615420
 C    -2.48577953     2.90336300     0.00490608
 C    -2.50409709     1.46209652     0.00285683
 C    -1.25366084     0.72776253     0.00169285
 C    -1.25362979    -0.72728318    -0.00037776
 C    -0.00018776    -1.43747346    -0.00150766
 C    -0.00031155    -2.87163675    -0.00354854
 C     1.23550736    -3.61709053    -0.00472694
 C     1.26407253    -5.15805877    -0.00692254
 C     2.54396445    -5.95726568    -0.00818164
 C     3.87676479    -5.21547248    -0.00725284
 C     5.16834464    -5.99153856    -0.00848012
 C     6.47490748    -5.31423316    -0.00764060
 C     7.83257656    -6.12437762    -0.00892266
 C     7.76888817    -7.69339352    -0.01114939
 C     6.39355732    -8.28123821    -0.01185506
 C     5.14402188    -7.50542851    -0.01063215
 C     3.85253804    -8.21153889    -0.01151409
 C     2.57197150    -7.48001282    -0.01035125
 C     1.27731358    -8.21645220    -0.01127605
 C     0.00207492    -7.49930447    -0.01013418
 C    -0.00833096    -5.98764481    -0.00798202
 C    -1.25714292    -5.15513720    -0.00667849
 C    -1.23576594    -3.61651113    -0.00449098
 C    -2.48524109    -2.90321377    -0.00335703
 C    -2.50388356    -1.46197679    -0.00130430
 C    -3.85854001    -0.74202067    -0.00015087
 C    -3.85857062     0.74170012     0.00196054
 C    -5.19254267     1.49467951     0.00315900
 C    -5.15903713     3.00218843     0.00530108
 C    -6.47942701     3.77830523     0.00653117
 C    -6.46424950     5.28527471     0.00867422
 C    -7.83128878     6.13207259     0.01000933
 C    -7.71105568     7.60852892     0.01209896
 C    -7.79385517     2.99907997     0.00554736
 C    -7.83677222     1.54636277     0.00348415
 C    -6.48567401     0.74289132     0.00221221
 C    -6.48542664    -0.74409160     0.00009613
 C    -5.19223793    -1.49541059    -0.00109608
 C    -5.15853336    -3.00331110    -0.00324511
 C    -3.81793186    -3.69153178    -0.00435204
 C    -3.86643239    -5.20205553    -0.00649698
 C    -2.55918902    -5.96519425    -0.00770735
 C    -2.56523658    -7.47537246    -0.00985584
 C    -1.30936703    -8.22496346    -0.01104204
 C    -1.29839351    -9.72616793    -0.01317938
 C    -0.03386373   -10.54029205    -0.01445824
 C     1.28935035    -9.72595527    -0.01342530
 C     2.57085897   -10.52364199    -0.01468239
 C     3.87991696    -9.72686406    -0.01367309
 C     5.15781897   -10.51219151    -0.01491224
 C     6.44934800    -9.86149009    -0.01410915
 C    -2.63048220   -10.55167583    -0.01422737
 C    -3.87994185    -9.71739370    -0.01292126
 C    -3.87984249    -8.22686235    -0.01080016
 C    -5.12286333    -7.48356196    -0.00962414
 C    -5.17731138    -5.99148936    -0.00749566
 C    -6.46305053    -5.28774423    -0.00637185
 C    -6.47856336    -3.77959976    -0.00422421
 C    -7.79278538    -3.00123172    -0.00299150
 C    -7.83653848    -1.54775230    -0.00091896
 C    -7.82941092    -6.13436716    -0.00744663
 C    -7.70911357    -7.61293020    -0.00956215
 C    -6.41687283    -8.26366814    -0.01061114
 C    -6.47050789    -9.81912427    -0.01281953
 C    -5.20297366   -10.57258489    -0.01401235
 C     6.41985352     8.27881561     0.01170826
