262    

 C     6.45264000     9.86213000     0.00182000
 C     3.86493000     9.70472000     0.07579000
 C     1.28564000     9.73515000     0.00976000
 C    -1.30064000     9.72999000    -0.16123000
 C    -3.88304000     9.71682000    -0.33414000
 C    -6.47391000     9.81690000    -0.60745000
 C     7.79590000     7.69199000    -0.21814000
 C     5.20309000     7.48976000    -0.12193000
 C     2.54782000     7.47767000    -0.06420000
 C    -0.00496000     7.50149000    -0.13826000
 C    -2.56907000     7.47527000    -0.26358000
 C    -5.12525000     7.48221000    -0.44819000
 C    -7.71114000     7.60979000    -0.87408000
 C     6.49112000     5.30900000    -0.22535000
 C     3.88072000     5.21641000    -0.14271000
 C     1.26255000     5.15896000    -0.16764000
 C    -1.25854000     5.15612000    -0.22581000
 C    -3.86780000     5.20171000    -0.32867000
 C    -6.46430000     5.28603000    -0.52208000
 C     7.82552000     3.05197000    -0.31680000
 C     5.17289000     3.01993000    -0.19636000
 C     2.48424000     2.90403000     0.05629000
 C    -0.00060000     2.87235000    -0.00527000
 C    -2.48578000     2.90337000    -0.00001000
 C    -5.15907000     3.00268000    -0.34013000
 C    -7.79391000     2.99990000    -0.57070000
 C     6.48344000     0.75065000    -0.25440000
 C     3.86082000     0.75074000    -0.18068000
 C     1.25366000     0.72798000     0.01800000
 C    -1.25366000     0.72775000     0.01050000
 C    -3.85859000     0.74199000    -0.20174000
 C    -6.48570000     0.74328000    -0.27092000
 C     7.84488000    -1.52123000    -0.17705000
 C     5.19212000    -1.49049000    -0.18926000
 C     2.50363000    -1.46271000     0.00353000
 C    -0.00019000    -1.43744000    -0.02502000
 C    -2.50388000    -1.46203000     0.03609000
 C    -5.19225000    -1.49523000    -0.12800000
 C    -7.83655000    -1.54758000    -0.12200000
 C     6.47194000    -3.78781000    -0.20860000
 C     3.81216000    -3.68748000    -0.21410000
 C     1.23551000    -3.61713000     0.02301000
 C    -1.23576000    -3.61660000     0.05796000
 C    -3.81794000    -3.69141000    -0.08993000
 C    -6.47856000    -3.77965000     0.03108000
 C     7.83256000    -6.12413000    -0.18293000
 C     5.16832000    -5.99117000    -0.26747000
 C     2.54394000    -5.95690000    -0.26515000
 C    -0.00835000    -5.98736000    -0.20812000
 C    -2.55920000    -5.96503000    -0.12313000
 C    -5.17731000    -5.99151000     0.00701000
 C    -7.82939000    -6.13468000     0.21239000
 C     6.39352000    -8.28068000    -0.40412000
 C     3.85250000    -8.21097000    -0.41128000
 C     1.27728000    -8.21595000    -0.36418000
 C    -1.30939000    -8.22462000    -0.25240000
 C    -3.87985000    -8.22675000    -0.08975000
 C    -6.41686000    -8.26386000     0.12421000
 C     5.15775000   -10.51116000    -0.73977000
 C     2.57080000   -10.52276000    -0.63447000
 C    -0.03391000   -10.53960000    -0.50077000
 C    -2.63051000   -10.55126000    -0.30644000
 C    -5.20298000   -10.57249000    -0.08069000
 C     6.41989000     8.27827000     0.39512000
 C     3.87549000     8.15831000     0.42362000
 C     1.26408000     8.22737000     0.37157000
 C    -1.31619000     8.22185000     0.26586000
 C    -3.88419000     8.22784000     0.08710000
 C    -6.41990000     8.26247000    -0.13071000
 C     7.85162000     6.11982000     0.17995000
 C     5.18451000     5.97317000     0.27878000
 C     2.54224000     5.95452000     0.27557000
 C    -0.01071000     5.98873000     0.21721000
 C    -2.56177000     5.96508000     0.12967000
 C    -5.17941000     5.99081000    -0.00496000
 C    -7.83131000     6.13239000    -0.21304000
 C     6.47872000     3.78258000     0.20874000
 C     3.81451000     3.68739000     0.21913000
 C     1.23533000     3.61778000    -0.01587000
 C    -1.23640000     3.61709000    -0.04982000
 C    -3.81887000     3.69117000     0.09694000
 C    -6.47943000     3.77835000    -0.02493000
 C     7.84759000     1.51561000     0.16976000
 C     5.19373000     1.48975000     0.18924000
 C     2.50394000     1.46369000     0.00136000
 C    -0.00026000     1.43816000     0.03219000
 C    -2.50410000     1.46214000    -0.02770000
 C    -5.19253000     1.49449000     0.13633000
 C    -7.83676000     1.54618000     0.13192000
 C     6.48365000    -0.75292000     0.25077000
 C     3.86082000    -0.75012000     0.18319000
 C     1.25355000    -0.72697000    -0.01198000
 C    -1.25363000    -0.72728000    -0.00261000
 C    -3.85852000    -0.74232000     0.21019000
 C    -6.48540000    -0.74449000     0.28006000
 C     7.82129000    -3.05719000     0.31163000
 C     5.17066000    -3.02016000     0.19838000
 C     2.48356000    -2.90302000    -0.05046000
 C    -0.00031000    -2.87166000     0.01279000
 C    -2.48524000    -2.90323000     0.00805000
 C    -5.15850000    -3.00381000     0.34734000
 C    -7.79273000    -3.00206000     0.57905000
 C     6.47493000    -5.31457000     0.22906000
 C     3.87678000    -5.21570000     0.15263000
 C     1.26409000    -5.15832000     0.17665000
 C    -1.25712000    -5.15548000     0.23421000
 C    -3.86640000    -5.20254000     0.33395000
 C    -6.46300000    -5.28850000     0.52472000
 C     7.76891000    -7.69372000     0.21827000
 C     5.14403000    -7.50555000     0.07474000
 C     2.57198000    -7.48014000     0.07902000
 C     0.00209000    -7.49953000     0.14835000
 C    -2.56521000    -7.47577000     0.26950000
 C    -5.12282000    -7.48421000     0.44576000
 C    -7.70903000    -7.61418000     0.86869000
 C     6.44935000    -9.86152000     0.00691000
 C     3.87991000    -9.72676000    -0.08680000
 C     1.28935000    -9.72595000    -0.01713000
 C    -1.29838000    -9.72637000     0.12882000
 C    -3.87991000    -9.71787000     0.32178000
 C    -6.47045000    -9.81999000     0.59554000
 C     5.14299000    10.48393000     0.74417000
 C     2.56348000    10.54428000     0.62033000
 C    -0.04270000    10.54598000     0.48226000
 C    -2.63198000    10.55095000     0.28906000
 C    -5.20645000    10.57251000     0.06534000
 F     6.43247000    10.08519000    -1.32802000
 F     3.91111000     9.99709000    -1.37708000
 F     1.36679000     9.89629000    -1.44751000
 F    -1.19241000     9.92642000    -1.62945000
 F    -3.77421000     9.81526000    -1.79587000
 F    -6.43738000     9.92583000    -1.95271000
 F     7.84039000     7.84113000    -1.56021000
 F     5.20234000     7.67385000    -1.59458000
 F     2.61538000     7.57076000    -1.52525000
 F     0.05845000     7.56940000    -1.60141000
 F    -2.48021000     7.51481000    -1.72632000
 F    -5.02871000     7.49215000    -1.91131000
 F    -7.58414000     7.53322000    -2.21822000
 F     6.47789000     5.33783000    -1.69284000
 F     3.86891000     5.24130000    -1.60753000
 F     1.31853000     5.25449000    -1.62784000
 F    -1.21845000     5.22575000    -1.68800000
 F    -3.76774000     5.14425000    -1.78960000
 F    -6.38697000     5.19410000    -1.98451000
 F     7.90180000     3.11635000    -1.66477000
 F     5.13356000     3.00455000    -1.66121000
 F    -5.06353000     2.90847000    -1.79967000
 F    -7.82590000     2.94591000    -1.92069000
 F     6.51225000     0.74102000    -1.72217000
 F     3.85386000     0.68093000    -1.64351000
 F    -3.83962000     0.60182000    -1.65965000
 F    -6.51304000     0.65120000    -1.73544000
 F     8.00730000    -1.45774000    -1.51765000
 F     5.21116000    -1.49881000    -1.65433000
 F    -5.22301000    -1.57312000    -1.59101000
 F    -8.00605000    -1.59318000    -1.46199000
 F     6.57884000    -3.75500000    -1.67210000
 F     3.89314000    -3.69211000    -1.67568000
 F    -3.95107000    -3.76211000    -1.54574000
 F    -6.64081000    -3.83977000    -1.42601000
 F     8.06006000    -5.99753000    -1.50749000
 F     5.22665000    -5.93750000    -1.73095000
 F     2.51849000    -5.85558000    -1.72717000
 F    -0.05189000    -5.81666000    -1.66403000
 F    -2.61754000    -5.92673000    -1.58700000
 F    -5.30510000    -6.02379000    -1.45300000
 F    -8.11626000    -6.15021000    -1.10528000
 F     6.55570000    -8.18867000    -1.86193000
 F     3.84973000    -8.13682000    -1.87608000
 F     1.22988000    -8.16263000    -1.82908000
 F    -1.37297000    -8.20733000    -1.71750000
 F    -3.99228000    -8.25414000    -1.55183000
 F    -6.67300000    -8.29130000    -1.32240000
 F     5.24575000   -10.38236000    -2.07970000
 F     2.57025000   -10.50326000    -1.98223000
 F    -0.07042000   -10.55322000    -1.84788000
 F    -2.70022000   -10.60121000    -1.65142000
 F    -5.35135000   -10.65269000    -1.41995000
 F     6.56199000     8.17426000     1.85381000
 F     3.82101000     8.13154000     1.90567000
 F     1.22335000     8.17819000     1.83566000
 F    -1.38118000     8.21638000     1.73116000
 F    -4.00000000     8.26030000     1.54879000
 F    -6.67761000     8.29489000     1.31553000
 F     8.08242000     5.99130000     1.50365000
 F     5.23626000     5.93842000     1.74322000
 F     2.51477000     5.85009000     1.73726000
 F    -0.05503000     5.82163000     1.67345000
 F    -2.62145000     5.92997000     1.59357000
 F    -5.30836000     6.02691000     1.45486000
 F    -8.11862000     6.15174000     1.10448000
 F     6.58881000     3.75028000     1.67200000
 F     3.89918000     3.69089000     1.68051000
 F    -3.95270000     3.76382000     1.55260000
 F    -6.64127000     3.84119000     1.43210000
 F     8.01445000     1.45087000     1.50977000
 F     5.21667000     1.49730000     1.65424000
 F    -5.22280000     1.57327000     1.59931000
 F    -8.00475000     1.59303000     1.47206000
 F     6.51641000    -0.74270000     1.71845000
 F     3.85625000    -0.67960000     1.64600000
 F    -3.83974000    -0.60255000     1.66814000
 F    -6.51211000    -0.65242000     1.74461000
 F     7.90261000    -3.11891000     1.65943000
 F     5.13495000    -3.00108000     1.66329000
 F    -5.06337000    -2.91078000     1.80698000
 F    -7.82339000    -2.94943000     1.92912000
 F     6.47410000    -5.33229000     1.69694000
 F     3.86197000    -5.22869000     1.61783000
 F     1.31737000    -5.25057000     1.63713000
 F    -1.21923000    -5.22409000     1.69652000
 F    -3.76912000    -5.14662000     1.79512000
 F    -6.38713000    -5.19991000     1.98744000
 F     7.81621000    -7.83767000     1.56183000
 F     5.17783000    -7.61292000     1.53700000
 F     2.61682000    -7.56832000     1.54176000
 F     0.06568000    -7.56074000     1.61176000
 F    -2.48222000    -7.51116000     1.73275000
 F    -5.02873000    -7.49889000     1.90898000
 F    -7.58331000    -7.54195000     2.21319000
 F     6.42079000   -10.07159000     1.33893000
 F     3.91064000    -9.96078000     1.36268000
 F     1.36778000    -9.90010000     1.43906000
 F    -1.19123000    -9.87125000     1.58668000
 F    -3.77025000    -9.82267000     1.78314000
 F    -6.43354000    -9.93363000     1.94037000
 F     5.22715000    10.34797000     2.08358000
 F     2.56078000    10.53289000     1.96789000
 F    -0.08243000    10.56056000     1.82926000
 F    -2.70105000    10.59914000     1.63411000
 F    -5.35408000    10.65834000     1.40433000
 F     5.15863000   -11.78740000    -0.30279000
 F     2.56152000   -11.74761000    -0.06937000
 F    -0.02905000   -11.74925000     0.09567000
 F    -2.61454000   -11.74347000     0.32431000
 F    -5.19956000   -11.75302000     0.57551000
 F     5.14527000    11.76492000     0.32089000
 F     2.55838000    11.76355000     0.04246000
 F    -0.03416000    11.75630000    -0.11305000
 F    -2.62231000    11.74559000    -0.33739000
 F    -5.20450000    11.75024000    -0.59591000
 F    -8.82810000     8.23929000    -0.44958000
 F    -8.89051000     3.48595000     0.04981000
 F    -8.86902000    -1.07455000     0.61223000
 F    -8.81435000    -5.70808000     1.03161000
 F    -8.81576000     5.70281000    -1.03133000
 F    -8.87004000     1.07243000    -0.60066000
 F    -8.88998000    -3.48742000    -0.04073000
 F    -8.82539000    -8.24270000     0.44117000
 F    -7.51255000    10.43604000    -0.00416000
 F    -7.50896000   -10.43744000    -0.00969000
 F     7.48499000    10.44478000     0.64676000
 F     8.84391000     8.21008000     0.45988000
 F     8.85459000     5.75792000    -0.64982000
 F     8.89957000     3.48030000     0.38172000
 F     8.87635000     1.09606000    -0.60168000
 F     8.87718000    -1.10274000     0.59022000
 F     8.89248000    -3.48824000    -0.38967000
 F     8.83951000    -5.76458000     0.64331000
 F     8.82151000    -8.20786000    -0.45611000
 F     7.49059000   -10.44339000    -0.62442000
