548    

 C    -0.20313000    -1.07213000    -0.53079000
 C    -0.06812000     1.40169000    -0.55899000
 C    -0.00856000     3.97150000    -0.55293000
 C     0.03144000     6.55768000    -0.47369000
 C     0.04608000     9.14243000    -0.39727000
 C     0.04568000    11.72425000    -0.24352000
 C     0.04894000    14.30932000    -0.09752000
 C     0.04795000    16.89070000     0.11276000
 C     0.03924000    19.47860000     0.30166000
 C     0.02580000    22.06268000     0.53898000
 C    -0.08312000    24.65827000     0.79384000
 C     2.12564000     0.02039000    -0.33423000
 C     2.20596000     2.63072000    -0.40483000
 C     2.24926000     5.23165000    -0.40904000
 C     2.27858000     7.82988000    -0.36400000
 C     2.27932000    10.41999000    -0.27755000
 C     2.28121000    13.00874000    -0.15810000
 C     2.28891000    15.59438000    -0.01561000
 C     2.28169000    18.18197000     0.14504000
 C     2.26613000    20.76907000     0.31864000
 C     2.24532000    23.33211000     0.51980000
 C     2.12652000    25.92101000     0.93672000
 C     4.37969000    -1.31335000    -0.10556000
 C     4.43068000     1.31997000    -0.23965000
 C     4.48709000     3.92368000    -0.28799000
 C     4.52491000     6.52950000    -0.28398000
 C     4.54278000     9.12860000    -0.23443000
 C     4.52168000    11.70950000    -0.15364000
 C     4.54983000    14.28893000    -0.05793000
 C     4.54782000    16.88268000     0.05181000
 C     4.52922000    19.48408000     0.18150000
 C     4.50852000    22.08600000     0.32669000
 C     4.44562000    24.68766000     0.51558000
 C     6.69842000     0.05328000    -0.08494000
 C     6.73084000     2.62186000    -0.20052000
 C     6.76392000     5.23389000    -0.20335000
 C     6.81186000     7.84038000    -0.19791000
 C     6.86994000    10.45512000    -0.14797000
 C     6.87313000    12.96130000    -0.09114000
 C     6.82614000    15.57446000    -0.02489000
 C     6.79186000    18.18009000     0.07341000
 C     6.77484000    20.79477000     0.17161000
 C     6.75136000    23.40107000     0.28926000
 C     6.73732000    26.01916000     0.51794000
 C     8.97403000    -1.30784000    -0.02557000
 C     8.99541000     1.33442000    -0.10900000
 C     9.00784000     3.94123000    -0.12795000
 C     9.01744000     6.57211000    -0.14338000
 C     9.11205000     9.26744000    -0.37531000
 C     9.13198000    11.71249000    -0.29681000
 C     9.11247000    14.15931000    -0.31745000
 C     9.03223000    16.84775000    -0.01860000
 C     9.03237000    19.48413000     0.04879000
 C     9.02297000    22.10501000     0.10596000
 C     9.00450000    24.69626000     0.18666000
 C    11.26707000     0.05408000    -0.03585000
 C    11.26795000     2.63925000    -0.07357000
 C    11.27078000     5.25073000    -0.07516000
 C    11.26429000     7.91543000    -0.10777000
 C    11.26005000    10.49538000    -0.29875000
 C    11.26002000    12.93051000    -0.29160000
 C    11.27184000    15.50883000    -0.08251000
 C    11.28264000    18.17822000    -0.03615000
 C    11.28217000    20.80030000    -0.02603000
 C    11.28706000    23.40678000    -0.00681000
 C    11.30132000    26.03864000     0.08306000
 C    13.53781000    -1.31128000    -0.05493000
 C    13.54187000     1.33756000    -0.05018000
 C    13.52631000     3.94468000    -0.03188000
 C    13.49521000     6.56877000    -0.03183000
 C    13.52021000     9.26890000    -0.24312000
 C    13.55364000    11.71332000    -0.20178000
 C    13.51918000    14.15794000    -0.27180000
 C    13.49885000    16.86102000    -0.09306000
 C    13.52888000    19.49122000    -0.11670000
 C    13.54394000    22.11007000    -0.14997000
 C    13.55178000    24.70172000    -0.18121000
 C    15.82125000     0.04480000    -0.00489000
 C    15.79667000     2.63512000     0.01049000
 C    15.76897000     5.25373000     0.02945000
 C    15.70839000     7.93048000     0.01792000
 C    15.63838000    10.49749000    -0.24214000
 C    15.63750000    12.92858000    -0.27753000
 C    15.71129000    15.50166000    -0.09466000
 C    15.76653000    18.17972000    -0.15678000
 C    15.78779000    20.80425000    -0.23149000
 C    15.81955000    23.41372000    -0.31202000
 C    15.86130000    26.05102000    -0.35372000
 C    18.11259000    -1.32660000    -0.02570000
 C    18.08354000     1.32327000     0.05286000
 C    18.03911000     3.93158000     0.10079000
 C    18.00275000     6.54816000     0.10843000
 C    17.98530000     9.17594000     0.06037000
 C    18.02143000    11.72011000    -0.00622000
 C    17.99000000    14.26341000    -0.07350000
 C    18.00264000    16.88787000    -0.14975000
 C    18.02815000    19.50119000    -0.26005000
 C    18.05743000    22.11329000    -0.38329000
 C    18.10273000    24.70745000    -0.52918000
 C    20.37933000     0.02560000     0.14915000
 C    20.31601000     2.62263000     0.19793000
 C    20.27282000     5.23597000     0.21228000
 C    20.24986000     7.84246000     0.18477000
 C    20.25707000    10.43025000     0.11859000
 C    20.26158000    13.02257000     0.01971000
 C    20.25687000    15.60560000    -0.10045000
 C    20.27281000    18.20201000    -0.23803000
 C    20.29634000    20.80439000    -0.38986000
 C    20.33035000    23.40303000    -0.56331000
 C    20.47041000    26.04616000    -0.75951000
 C    22.68911000    -1.35904000     0.22874000
 C    22.58872000     1.33410000     0.33165000
 C    22.53045000     3.94304000     0.36039000
 C    22.50408000     6.54710000     0.33080000
 C    22.49966000     9.14173000     0.25816000
 C    22.50540000    11.73589000     0.14552000
 C    22.50954000    14.32795000     0.00182000
 C    22.51667000    16.91443000    -0.16546000
 C    22.53511000    19.50277000    -0.34928000
 C    22.56061000    22.08546000    -0.54696000
 C    22.60344000    24.62457000    -0.76732000
 C    24.97642000     0.15476000     0.71451000
 C    24.86323000     2.69114000     0.64404000
 C    24.83301000     5.28205000     0.59181000
 C    24.82234000     7.87123000     0.50507000
 C    24.82566000    10.46116000     0.37798000
 C    24.83323000    13.05180000     0.21353000
 C    24.84167000    15.63983000     0.01815000
 C    24.85524000    18.22549000    -0.20166000
 C    24.87683000    20.81249000    -0.43814000
 C    24.91106000    23.38785000    -0.67736000
 C     1.36290000    -1.35732000    -0.77281000
 C     1.48149000     1.32977000    -0.87117000
 C     1.50863000     3.94108000    -0.88217000
 C     1.54976000     6.54690000    -0.86433000
 C     1.54934000     9.14180000    -0.77907000
 C     1.55158000    11.73644000    -0.67702000
 C     1.54061000    14.32737000    -0.52234000
 C     1.54041000    16.91422000    -0.36844000
 C     1.51514000    19.50133000    -0.17599000
 C     1.49580000    22.08552000     0.00451000
 C     1.44602000    24.62008000     0.23721000
 C     3.67539000     0.02609000    -0.68326000
 C     3.73294000     2.62454000    -0.72890000
 C     3.77367000     5.23479000    -0.74746000
 C     3.79978000     7.84152000    -0.71831000
 C     3.79371000    10.42937000    -0.65008000
 C     3.78998000    13.02209000    -0.55080000
 C     3.79454000    15.60482000    -0.43111000
 C     3.77881000    18.20133000    -0.29580000
 C     3.75478000    20.80329000    -0.14681000
 C     3.72066000    23.40178000     0.02452000
 C     3.57800000    26.04405000     0.21682000
 C     5.94202000    -1.32001000    -0.51425000
 C     5.96048000     1.32888000    -0.64557000
 C     6.01045000     3.93140000    -0.64904000
 C     6.04633000     6.54686000    -0.64757000
 C     6.06460000     9.17478000    -0.59608000
 C     6.02910000    11.71922000    -0.52847000
 C     6.06068000    14.26269000    -0.46073000
 C     6.04831000    16.88715000    -0.38582000
 C     6.02255000    19.50044000    -0.27747000
 C     5.99314000    22.11248000    -0.15729000
 C     5.94704000    24.70669000    -0.01491000
 C     8.23069000     0.04194000    -0.53133000
 C     8.25604000     2.63409000    -0.56167000
 C     8.28140000     5.25295000    -0.57310000
 C     8.34146000     7.92969000    -0.55687000
 C     8.41199000    10.49671000    -0.29519000
 C     8.41308000    12.92796000    -0.25906000
 C     8.33920000    15.50108000    -0.44223000
 C     8.28408000    18.17918000    -0.38176000
 C     8.26264000    20.80372000    -0.30960000
 C     8.23046000    23.41323000    -0.23246000
 C     8.18791000    26.05047000    -0.19504000
 C    10.51848000    -1.31285000    -0.48396000
 C    10.51119000     1.33653000    -0.49279000
 C    10.52518000     3.94451000    -0.51148000
 C    10.55501000     6.56864000    -0.50875000
 C    10.53002000     9.26853000    -0.29539000
 C    10.49671000    11.71305000    -0.33605000
 C    10.53129000    14.15771000    -0.26587000
 C    10.55166000    16.86071000    -0.44571000
 C    10.52160000    19.49089000    -0.42425000
 C    10.50624000    22.10970000    -0.39395000
 C    10.49786000    24.70131000    -0.36644000
 C    12.78753000     0.05396000    -0.50539000
 C    12.78405000     2.63939000    -0.46999000
 C    12.77987000     5.25109000    -0.46650000
 C    12.78589000     7.91584000    -0.43157000
 C    12.79024000    10.49560000    -0.23936000
 C    12.79038000    12.93068000    -0.24616000
 C    12.77865000    15.50891000    -0.45568000
 C    12.76794000    18.17817000    -0.50380000
 C    12.76825000    20.80012000    -0.51648000
 C    12.76295000    23.40649000    -0.53904000
 C    12.74811000    26.03811000    -0.63324000
 C    15.08330000    -1.30726000    -0.50835000
 C    15.05669000     1.33501000    -0.43576000
 C    15.04280000     3.94267000    -0.41774000
 C    15.03265000     6.57347000    -0.39761000
 C    14.93812000     9.26819000    -0.16300000
 C    14.91843000    11.71313000    -0.24056000
 C    14.93803000    14.15982000    -0.21962000
 C    15.01852000    16.84803000    -0.51946000
 C    15.01836000    19.48420000    -0.58901000
 C    15.02747000    22.10491000    -0.64917000
 C    15.04541000    24.69591000    -0.73361000
 C    17.35098000     0.04536000    -0.44712000
 C    17.31833000     2.62641000    -0.36349000
 C    17.28642000     5.23619000    -0.34026000
 C    17.23812000     7.84225000    -0.34015000
 C    17.18061000    10.45634000    -0.38812000
 C    17.17771000    12.96212000    -0.44416000
 C    17.22489000    15.57504000    -0.51062000
 C    17.25923000    18.18041000    -0.61057000
 C    17.27611000    20.79502000    -0.71131000
 C    17.29920000    23.40109000    -0.83233000
 C    17.31253000    26.01875000    -1.06531000
 C    19.67489000    -1.31285000    -0.43418000
 C    19.61070000     1.31761000    -0.28498000
 C    19.56374000     3.92288000    -0.24972000
 C    19.52456000     6.53145000    -0.25264000
 C    19.50768000     9.13002000    -0.29912000
 C    19.52976000    11.71042000    -0.37880000
 C    19.50166000    14.28941000    -0.47406000
 C    19.50399000    16.88311000    -0.58544000
 C    19.52217000    19.48440000    -0.71720000
 C    19.54289000    22.08665000    -0.86532000
 C    19.60508000    24.68811000    -1.05726000
 C    21.93145000     0.02523000    -0.20288000
 C    21.84489000     2.62969000    -0.12517000
 C    21.79766000     5.23397000    -0.12229000
 C    21.77260000     7.83073000    -0.16556000
 C    21.77296000    10.41997000    -0.25029000
 C    21.77202000    13.00877000    -0.36948000
 C    21.76394000    15.59444000    -0.51279000
 C    21.77152000    18.18228000    -0.67589000
 C    21.78615000    20.76901000    -0.85338000
 C    21.80718000    23.33402000    -1.05581000
 C    21.92501000    25.92326000    -1.47326000
 C    24.25814000    -1.08678000    -0.00775000
 C    24.11542000     1.37599000     0.04949000
 C    24.04679000     3.96745000     0.04402000
 C    24.01613000     6.55520000    -0.01082000
 C    24.00660000     9.14057000    -0.10549000
 C    24.00651000    11.72556000    -0.23926000
 C    24.00515000    14.31026000    -0.40577000
 C    24.00573000    16.89458000    -0.59831000
 C    24.01548000    19.48119000    -0.80989000
 C    24.02901000    22.06777000    -1.03146000
 C    24.13585000    24.66242000    -1.31459000
 C    -0.91916000     0.17945000    -1.23975000
 C    -0.85417000     2.71114000    -1.14890000
 C    -0.78967000     5.29272000    -1.09031000
 C    -0.77214000     7.87251000    -1.00168000
 C    -0.77495000    10.46475000    -0.87187000
 C    -0.78011000    13.04838000    -0.70964000
 C    -0.78928000    15.63994000    -0.51373000
 C    -0.80083000    18.21949000    -0.29867000
 C    -0.82333000    20.81053000    -0.06332000
 C    -0.85826000    23.37852000     0.16800000
 F    -0.46920000    -1.11304000     0.79470000
 F    -0.38191000     1.39161000     0.89176000
 F    -0.20223000     3.93523000     0.90230000
 F    -0.20398000     6.49618000     0.99155000
 F    -0.11133000     9.05769000     1.06071000
 F    -0.14989000    11.62163000     1.22537000
 F    -0.06590000    14.19095000     1.36215000
 F    -0.09766000    16.76024000     1.58519000
 F    -0.02157000    19.34190000     1.76303000
 F    -0.06149000    21.94163000     2.01750000
 F    -0.12737000    24.62540000     2.14280000
 F     2.00985000     0.04023000     1.12889000
 F     2.08720000     2.62609000     1.05633000
 F     2.14457000     5.21630000     1.05319000
 F     2.18692000     7.78343000     1.09852000
 F     2.20235000    10.36180000     1.18559000
 F     2.22587000    12.92913000     1.30499000
 F     2.25531000    15.50991000     1.44779000
 F     2.27642000    18.07848000     1.60756000
 F     2.28244000    20.66674000     1.78130000
 F     2.26728000    23.23520000     1.98298000
 F     2.25329000    25.80919000     2.27820000
 F     4.24599000    -1.38004000     1.23817000
 F     4.37641000     1.30615000     1.22545000
 F     4.41780000     3.91969000     1.17632000
 F     4.46640000     6.51130000     1.18064000
 F     4.48860000     9.08573000     1.22993000
 F     4.49399000    11.65612000     1.31138000
 F     4.53502000    14.22987000     1.40686000
 F     4.56428000    16.80695000     1.51580000
 F     4.56257000    19.40407000     1.64495000
 F     4.56745000    22.00562000     1.78931000
 F     4.56333000    24.62232000     1.97650000
 F     6.68600000    -0.00165000     1.39889000
 F     6.68244000     2.62039000     1.26433000
 F     6.72176000     5.23348000     1.26207000
 F     6.78994000     7.84107000     1.26763000
 F     6.78817000    10.39332000     1.31215000
 F     6.80947000    12.93937000     1.37107000
 F     6.86768000    15.49836000     1.43849000
 F     6.83138000    18.11698000     1.53765000
 F     6.83397000    20.73596000     1.63514000
 F     6.84191000    23.35975000     1.75190000
 F     6.80580000    26.06314000     1.86763000
 F     8.88875000    -1.42294000     1.31929000
 F     8.96504000     1.31312000     1.35638000
 F     8.97171000     3.94819000     1.33752000
 F     9.01014000     6.61764000     1.32184000
 F     9.08748000    16.76285000     1.44395000
 F     9.08409000    19.44039000     1.51312000
 F     9.10238000    22.07604000     1.56934000
 F     9.11655000    24.71821000     1.64997000
 F    11.25047000     0.00583000     1.43159000
 F    11.24062000     2.63523000     1.39212000
 F    11.23607000     5.26131000     1.39047000
 F    11.29505000     7.92293000     1.35572000
 F    11.36553000    15.48485000     1.37840000
 F    11.32041000    18.15495000     1.42927000
 F    11.34820000    20.79343000     1.43831000
 F    11.38116000    23.43305000     1.45599000
 F    11.36753000    26.15924000     1.42826000
 F    13.44555000    -1.47214000     1.28487000
 F    13.51284000     1.28437000     1.41437000
 F    13.49141000     3.93777000     1.43360000
 F    13.47483000     6.60087000     1.43358000
 F    13.53969000    16.83899000     1.37210000
 F    13.57802000    19.50070000     1.34830000
 F    13.62196000    22.14042000     1.31347000
 F    13.65994000    24.79459000     1.27965000
 F    15.78247000    -0.04679000     1.45990000
 F    15.75388000     2.60678000     1.47548000
 F    15.72296000     5.24284000     1.49444000
 F    15.70330000     7.87085000     1.48149000
 F    15.76294000    15.60020000     1.36584000
 F    15.79979000    18.22112000     1.30799000
 F    15.84833000    20.85277000     1.23226000
 F    15.90670000    23.50382000     1.14862000
 F    15.92244000    26.24049000     0.98305000
 F    17.98713000    -1.53284000     1.30433000
 F    18.01917000     1.24483000     1.51498000
 F    17.97997000     3.91192000     1.56533000
 F    17.95322000     6.55605000     1.57344000
 F    17.89742000     9.20776000     1.52348000
 F    17.85533000    11.75805000     1.45067000
 F    17.95061000    14.30267000     1.39131000
 F    18.02608000    16.93967000     1.31499000
 F    18.07197000    19.56460000     1.20379000
 F    18.12600000    22.19981000     1.07846000
 F    18.19883000    24.87702000     0.92545000
 F    20.28150000    -0.09895000     1.60828000
 F    20.23611000     2.59026000     1.66144000
 F    20.20753000     5.23819000     1.67687000
 F    20.18846000     7.87344000     1.64934000
 F    20.19636000    10.48170000     1.58304000
 F    20.22549000    13.07001000     1.48504000
 F    20.25896000    15.66739000     1.36438000
 F    20.30631000    18.27998000     1.22558000
 F    20.35486000    20.89930000     1.07201000
 F    20.41048000    23.54487000     0.89392000
 F    20.53774000    26.31819000     0.55962000
 F    22.49523000    -1.61087000     1.54059000
 F    22.49349000     1.26270000     1.79253000
 F    22.47520000     3.93328000     1.82576000
 F    22.46749000     6.56890000     1.79667000
 F    22.47911000     9.18770000     1.72384000
 F    22.50564000    11.79753000     1.61079000
 F    22.53433000    14.40191000     1.46630000
 F    22.56885000    17.00221000     1.29746000
 F    22.61427000    19.60553000     1.11146000
 F    22.66378000    22.21941000     0.91004000
 F    22.70087000    24.88103000     0.67633000
 F    24.78585000     0.01493000     2.04420000
 F    24.81923000     2.65776000     1.99133000
 F    24.82155000     5.27526000     1.93964000
 F    24.83007000     7.88690000     1.85284000
 F    24.85323000    10.49601000     1.72510000
 F    24.88263000    13.10239000     1.55951000
 F    24.91521000    15.70391000     1.36245000
 F    24.95473000    18.30200000     1.14026000
 F    25.00376000    20.90494000     0.90041000
 F    25.06240000    23.54348000     0.65500000
 F     1.55546000    -1.60095000    -2.08638000
 F     1.56124000     1.26690000    -2.33343000
 F     1.55686000     3.92227000    -2.34657000
 F     1.57152000     6.56770000    -2.33065000
 F     1.56127000     9.18826000    -2.24478000
 F     1.53634000    11.79811000    -2.14238000
 F     1.50772000    14.40115000    -1.98661000
 F     1.47362000    17.00088000    -1.83101000
 F     1.42825000    19.60259000    -1.63634000
 F     1.37836000    22.21650000    -1.45185000
 F     1.34156000    24.87013000    -1.20629000
 F     3.78093000    -0.08878000    -2.14251000
 F     3.81956000     2.58704000    -2.19180000
 F     3.83264000     5.23593000    -2.21234000
 F     3.85563000     7.87319000    -2.18312000
 F     3.84942000    10.48111000    -2.11474000
 F     3.82125000    13.06952000    -2.01627000
 F     3.78790000    15.66577000    -1.89600000
 F     3.74089000    18.27802000    -1.75940000
 F     3.69239000    20.89622000    -1.60868000
 F     3.63669000    23.54133000    -1.43274000
 F     3.50481000    26.31176000    -1.10286000
 F     6.06811000    -1.52325000    -1.84455000
 F     6.08654000     1.24582000    -2.12321000
 F     6.06791000     3.91723000    -2.11371000
 F     6.09249000     6.55717000    -2.11268000
 F     6.14947000     9.20746000    -2.05933000
 F     6.19252000    11.75741000    -1.98564000
 F     6.09764000    14.30174000    -1.92561000
 F     6.02245000    16.93797000    -1.85056000
 F     5.97665000    19.56236000    -1.74131000
 F     5.92235000    22.19708000    -1.61905000
 F     5.84851000    24.87405000    -1.46965000
 F     8.28076000    -0.05717000    -1.99503000
 F     8.31005000     2.61132000    -2.02623000
 F     8.32721000     5.24501000    -2.03812000
 F     8.34486000     7.87160000    -2.02050000
 F     8.28618000    15.59888000    -1.90274000
 F     8.24951000    18.21936000    -1.84654000
 F     8.20081000    20.85056000    -1.77337000
 F     8.14193000    23.50122000    -1.69315000
 F     8.12551000    26.23735000    -1.53211000
 F    10.60932000    -1.47537000    -1.82363000
 F    10.54295000     1.28224000    -1.95721000
 F    10.56285000     3.93988000    -1.97689000
 F    10.57509000     6.60264000    -1.97412000
 F    10.51019000    16.83754000    -1.91085000
 F    10.47186000    19.49888000    -1.88925000
 F    10.42761000    22.13815000    -1.85739000
 F    10.38906000    24.79183000    -1.82740000
 F    12.80476000     0.00312000    -1.97275000
 F    12.81202000     2.63488000    -1.93568000
 F    12.81442000     5.26364000    -1.93210000
 F    12.75456000     7.92482000    -1.89504000
 F    12.68513000    15.48434000    -1.91659000
 F    12.73023000    18.15366000    -1.96920000
 F    12.70230000    20.79158000    -1.98082000
 F    12.66889000    23.43063000    -2.00188000
 F    12.68193000    26.15618000    -1.97866000
 F    15.17719000    -1.42157000    -1.85280000
 F    15.08787000     1.31084000    -1.90115000
 F    15.07655000     3.95260000    -1.88325000
 F    15.03979000     6.62183000    -1.86275000
 F    14.96394000    16.76197000    -1.98198000
 F    14.96730000    19.43896000    -2.05331000
 F    14.94877000    22.07407000    -2.11254000
 F    14.93403000    24.71552000    -2.19701000
 F    17.38697000     0.03261000    -1.91495000
 F    17.36503000     2.63866000    -1.82861000
 F    17.32906000     5.24170000    -1.80565000
 F    17.26075000     7.84516000    -1.80567000
 F    17.26384000    10.39579000    -1.84822000
 F    17.24269000    12.94047000    -1.90631000
 F    17.18463000    15.49865000    -1.97401000
 F    17.22066000    18.11604000    -2.07477000
 F    17.21795000    20.73466000    -2.17481000
 F    17.21000000    23.35783000    -2.29500000
 F    17.24513000    26.06020000    -2.41513000
 F    19.80674000    -1.37553000    -1.77828000
 F    19.68703000     1.31108000    -1.74893000
 F    19.63543000     3.92081000    -1.71389000
 F    19.58569000     6.51404000    -1.71718000
 F    19.56227000     9.08770000    -1.76347000
 F    19.55945000    11.65734000    -1.84379000
 F    19.51658000    14.22989000    -1.93881000
 F    19.48904000    16.80645000    -2.04938000
 F    19.48857000    19.40279000    -2.18054000
 F    19.48493000    22.00452000    -2.32785000
 F    19.48903000    24.62171000    -2.51831000
 F    22.03918000     0.04247000    -1.66680000
 F    21.96242000     2.63241000    -1.58645000
 F    21.90137000     5.21473000    -1.58462000
 F    21.86395000     7.78848000    -1.62827000
 F    21.84760000    10.35810000    -1.71341000
 F    21.82656000    12.93261000    -1.83282000
 F    21.79451000    15.50503000    -1.97596000
 F    21.77544000    18.08104000    -2.13861000
 F    21.76678000    20.66130000    -2.31564000
 F    21.78006000    23.23985000    -2.51907000
 F    21.80433000    25.80914000    -2.81510000
 F    24.52980000    -1.11809000    -1.33260000
 F    24.38054000     1.38379000    -1.39595000
 F    24.25462000     3.93345000    -1.40967000
 F    24.20352000     6.49500000    -1.46667000
 F    24.17513000     9.05730000    -1.56259000
 F    24.15520000    11.62292000    -1.69734000
 F    24.13057000    14.19176000    -1.86483000
 F    24.10420000    16.76305000    -2.05828000
 F    24.08628000    19.34296000    -2.27089000
 F    24.06867000    21.94374000    -2.49518000
 F    24.18653000    24.62265000    -2.66320000
 F    -0.72977000     0.04784000    -2.57052000
 F    -0.81599000     2.67884000    -2.49621000
 F    -0.77865000     5.29014000    -2.43820000
 F    -0.78249000     7.88940000    -2.34940000
 F    -0.80619000    10.50046000    -2.21886000
 F    -0.83211000    13.09824000    -2.05552000
 F    -0.86625000    15.70334000    -1.85783000
 F    -0.90241000    18.29379000    -1.64052000
 F    -0.95347000    20.90036000    -1.40170000
 F    -1.01119000    23.52738000    -1.16499000
 F    26.25719000     0.15186000     0.28863000
 F    26.09791000     2.74135000     0.10178000
 F    26.05426000     5.31326000     0.01933000
 F    26.03552000     7.88606000    -0.08497000
 F    26.03024000    10.46230000    -0.22963000
 F    26.02797000    13.04188000    -0.41315000
 F    26.02500000    15.62066000    -0.62961000
 F    26.02587000    18.19816000    -0.87182000
 F    26.03256000    20.77910000    -1.13343000
 F    26.05686000    23.37042000    -1.39247000
 F    -2.20081000     0.16626000    -0.81620000
 F    -2.08321000     2.75680000    -0.59285000
 F    -2.01154000     5.32377000    -0.51887000
 F    -1.98555000     7.89340000    -0.41210000
 F    -1.97920000    10.46315000    -0.26324000
 F    -1.97528000    13.04326000    -0.08355000
 F    -1.97237000    15.61767000     0.13470000
 F    -1.97222000    18.19718000     0.37047000
 F    -1.97885000    20.77420000     0.63250000
 F    -2.00468000    23.36837000     0.88260000
 F    -0.77588000    -2.10871000    -1.18510000
 F     1.47141000    27.02816000     0.52501000
 F     3.98043000    -2.39692000    -0.80633000
 F     6.24011000    27.11132000    -0.10232000
 F     8.57290000    -2.37096000    -0.75930000
 F    10.82265000    27.09956000    -0.60514000
 F    13.13802000    -2.34619000    -0.82969000
 F    15.38796000    27.07804000    -1.09461000
 F    17.72992000    -2.33475000    -0.84258000
 F    20.01952000    27.04438000    -1.54832000
 F    22.44310000    -2.35669000    -0.64999000
 F     1.60680000    -2.36133000     0.09914000
 F     4.03037000    27.04536000     1.00077000
 F     6.32389000    -2.33171000     0.29867000
 F     8.66157000    27.07907000     0.54343000
 F    10.92135000    -2.34689000     0.29041000
 F    13.22643000    27.10046000     0.05297000
 F    15.48403000    -2.36830000     0.22865000
 F    17.80868000    27.11238000    -0.44677000
 F    20.07420000    -2.39895000     0.26246000
 F    22.57682000    27.03210000    -1.06089000
 F    24.82281000    -2.13152000     0.64050000
 F    -0.74142000    25.68930000     0.21948000
 F    24.78964000    25.69740000    -0.74231000
